<?xml version="1.0" encoding="UTF-8"?>

<!-- generated on Sat Jan  9 18:42:42 2021 by Eclipse SUMO netconvert Version 1.8.0
<configuration xmlns:xsi="http://www.w3.org/2001/XMLSchema-instance" xsi:noNamespaceSchemaLocation="http://sumo.dlr.de/xsd/netconvertConfiguration.xsd">

    <input>
        <node-files value="nodes.nod.xml"/>
        <edge-files value="edges.edg.xml"/>
    </input>

    <output>
        <output-file value="network.net.xml"/>
    </output>

    <report>
        <aggregate-warnings value="5"/>
    </report>

</configuration>
-->

<net version="1.6" junctionCornerDetail="5" limitTurnSpeed="5.50" xmlns:xsi="http://www.w3.org/2001/XMLSchema-instance" xsi:noNamespaceSchemaLocation="http://sumo.dlr.de/xsd/net_file.xsd">

    <location netOffset="200.00,0.00" convBoundary="0.00,0.00,2400.00,2000.00" origBoundary="-200.00,0.00,2200.00,2000.00" projParameter="!"/>

    <edge id=":entrance_0" function="internal">
        <lane id=":entrance_0_0" index="0" speed="3.65" length="4.67" shape="0.00,1.60 -1.20,0.80 -1.60,0.00 -1.20,-0.80 0.00,-1.60"/>
    </edge>
    <edge id=":exit_0" function="internal">
        <lane id=":exit_0_0" index="0" speed="3.65" length="4.67" shape="2400.00,1998.40 2401.20,1999.20 2401.60,2000.00 2401.20,2000.80 2400.00,2001.60"/>
    </edge>
    <edge id=":n0_0" function="internal">
        <lane id=":n0_0_0" index="0" speed="6.51" length="9.03" shape="195.20,10.40 194.85,7.95 193.80,6.20 192.05,5.15 189.60,4.80"/>
    </edge>
    <edge id=":n0_1" function="internal">
        <lane id=":n0_1_0" index="0" speed="9.26" length="19.35" shape="198.40,10.40 199.15,5.15 201.40,1.40 205.15,-0.85 210.40,-1.60"/>
    </edge>
    <edge id=":n0_2" function="internal">
        <lane id=":n0_2_0" index="0" speed="3.65" length="4.67" shape="198.40,10.40 199.20,9.20 200.00,8.80 200.80,9.20 201.60,10.40"/>
    </edge>
    <edge id=":n0_3" function="internal">
        <lane id=":n0_3_0" index="0" speed="6.51" length="9.03" shape="210.40,4.80 207.95,5.15 206.20,6.20 205.15,7.95 204.80,10.40"/>
    </edge>
    <edge id=":n0_4" function="internal">
        <lane id=":n0_4_0" index="0" speed="16.67" length="20.80" shape="210.40,4.80 189.60,4.80"/>
        <lane id=":n0_4_1" index="1" speed="16.67" length="20.80" shape="210.40,1.60 189.60,1.60"/>
    </edge>
    <edge id=":n0_6" function="internal">
        <lane id=":n0_6_0" index="0" speed="3.65" length="2.34" shape="210.40,1.60 209.20,0.80 208.80,0.00"/>
    </edge>
    <edge id=":n0_11" function="internal">
        <lane id=":n0_11_0" index="0" speed="3.65" length="2.34" shape="208.80,0.00 209.20,-0.80 210.40,-1.60"/>
    </edge>
    <edge id=":n0_7" function="internal">
        <lane id=":n0_7_0" index="0" speed="16.67" length="20.80" shape="189.60,-4.80 210.40,-4.80"/>
        <lane id=":n0_7_1" index="1" speed="16.67" length="20.80" shape="189.60,-1.60 210.40,-1.60"/>
    </edge>
    <edge id=":n0_9" function="internal">
        <lane id=":n0_9_0" index="0" speed="9.26" length="6.96" shape="189.60,-1.60 194.85,-0.85 196.27,-0.00"/>
    </edge>
    <edge id=":n0_10" function="internal">
        <lane id=":n0_10_0" index="0" speed="3.65" length="2.34" shape="189.60,-1.60 190.80,-0.80 191.20,0.00"/>
    </edge>
    <edge id=":n0_12" function="internal">
        <lane id=":n0_12_0" index="0" speed="9.26" length="12.40" shape="196.27,-0.00 198.60,1.40 200.85,5.15 201.60,10.40"/>
    </edge>
    <edge id=":n0_13" function="internal">
        <lane id=":n0_13_0" index="0" speed="3.65" length="2.34" shape="191.20,0.00 190.80,0.80 189.60,1.60"/>
    </edge>
    <edge id=":n1_0" function="internal">
        <lane id=":n1_0_0" index="0" speed="16.67" length="20.80" shape="195.20,1010.40 195.20,989.60"/>
        <lane id=":n1_0_1" index="1" speed="16.67" length="20.80" shape="198.40,1010.40 198.40,989.60"/>
    </edge>
    <edge id=":n1_2" function="internal">
        <lane id=":n1_2_0" index="0" speed="9.26" length="6.96" shape="198.40,1010.40 199.15,1005.15 200.00,1003.73"/>
    </edge>
    <edge id=":n1_3" function="internal">
        <lane id=":n1_3_0" index="0" speed="3.65" length="2.34" shape="198.40,1010.40 199.20,1009.20 200.00,1008.80"/>
    </edge>
    <edge id=":n1_11" function="internal">
        <lane id=":n1_11_0" index="0" speed="9.26" length="12.40" shape="200.00,1003.73 201.40,1001.40 205.15,999.15 210.40,998.40"/>
    </edge>
    <edge id=":n1_12" function="internal">
        <lane id=":n1_12_0" index="0" speed="3.65" length="2.34" shape="200.00,1008.80 200.80,1009.20 201.60,1010.40"/>
    </edge>
    <edge id=":n1_4" function="internal">
        <lane id=":n1_4_0" index="0" speed="6.51" length="9.03" shape="210.40,1004.80 207.95,1005.15 206.20,1006.20 205.15,1007.95 204.80,1010.40"/>
    </edge>
    <edge id=":n1_5" function="internal">
        <lane id=":n1_5_0" index="0" speed="9.26" length="19.35" shape="210.40,1001.60 205.15,1000.85 201.40,998.60 199.15,994.85 198.40,989.60"/>
    </edge>
    <edge id=":n1_6" function="internal">
        <lane id=":n1_6_0" index="0" speed="3.65" length="4.67" shape="210.40,1001.60 209.20,1000.80 208.80,1000.00 209.20,999.20 210.40,998.40"/>
    </edge>
    <edge id=":n1_7" function="internal">
        <lane id=":n1_7_0" index="0" speed="6.51" length="9.03" shape="204.80,989.60 205.15,992.05 206.20,993.80 207.95,994.85 210.40,995.20"/>
    </edge>
    <edge id=":n1_8" function="internal">
        <lane id=":n1_8_0" index="0" speed="16.67" length="20.80" shape="204.80,989.60 204.80,1010.40"/>
        <lane id=":n1_8_1" index="1" speed="16.67" length="20.80" shape="201.60,989.60 201.60,1010.40"/>
    </edge>
    <edge id=":n1_10" function="internal">
        <lane id=":n1_10_0" index="0" speed="3.65" length="2.34" shape="201.60,989.60 200.80,990.80 200.00,991.20"/>
    </edge>
    <edge id=":n1_13" function="internal">
        <lane id=":n1_13_0" index="0" speed="3.65" length="2.34" shape="200.00,991.20 199.20,990.80 198.40,989.60"/>
    </edge>
    <edge id=":n2_0" function="internal">
        <lane id=":n2_0_0" index="0" speed="8.96" length="18.06" shape="206.40,2004.80 201.50,2004.10 198.00,2002.00 195.90,1998.50 195.20,1993.60"/>
    </edge>
    <edge id=":n2_1" function="internal">
        <lane id=":n2_1_0" index="0" speed="7.66" length="12.90" shape="206.40,2001.60 202.90,2001.10 200.40,1999.60 198.90,1997.10 198.40,1993.60"/>
    </edge>
    <edge id=":n2_2" function="internal">
        <lane id=":n2_2_0" index="0" speed="3.90" length="2.58" shape="204.80,1993.60 204.90,1994.30 205.20,1994.80 205.70,1995.10 206.40,1995.20"/>
    </edge>
    <edge id=":n2_3" function="internal">
        <lane id=":n2_3_0" index="0" speed="6.08" length="7.74" shape="201.60,1993.60 201.90,1995.70 202.80,1997.20 204.30,1998.10 206.40,1998.40"/>
    </edge>
    <edge id=":n3_0" function="internal">
        <lane id=":n3_0_0" index="0" speed="6.51" length="9.03" shape="1195.20,10.40 1194.85,7.95 1193.80,6.20 1192.05,5.15 1189.60,4.80"/>
    </edge>
    <edge id=":n3_1" function="internal">
        <lane id=":n3_1_0" index="0" speed="9.26" length="19.35" shape="1198.40,10.40 1199.15,5.15 1201.40,1.40 1205.15,-0.85 1210.40,-1.60"/>
    </edge>
    <edge id=":n3_2" function="internal">
        <lane id=":n3_2_0" index="0" speed="3.65" length="4.67" shape="1198.40,10.40 1199.20,9.20 1200.00,8.80 1200.80,9.20 1201.60,10.40"/>
    </edge>
    <edge id=":n3_3" function="internal">
        <lane id=":n3_3_0" index="0" speed="6.51" length="9.03" shape="1210.40,4.80 1207.95,5.15 1206.20,6.20 1205.15,7.95 1204.80,10.40"/>
    </edge>
    <edge id=":n3_4" function="internal">
        <lane id=":n3_4_0" index="0" speed="16.67" length="20.80" shape="1210.40,4.80 1189.60,4.80"/>
        <lane id=":n3_4_1" index="1" speed="16.67" length="20.80" shape="1210.40,1.60 1189.60,1.60"/>
    </edge>
    <edge id=":n3_6" function="internal">
        <lane id=":n3_6_0" index="0" speed="3.65" length="2.34" shape="1210.40,1.60 1209.20,0.80 1208.80,0.00"/>
    </edge>
    <edge id=":n3_11" function="internal">
        <lane id=":n3_11_0" index="0" speed="3.65" length="2.34" shape="1208.80,0.00 1209.20,-0.80 1210.40,-1.60"/>
    </edge>
    <edge id=":n3_7" function="internal">
        <lane id=":n3_7_0" index="0" speed="16.67" length="20.80" shape="1189.60,-4.80 1210.40,-4.80"/>
        <lane id=":n3_7_1" index="1" speed="16.67" length="20.80" shape="1189.60,-1.60 1210.40,-1.60"/>
    </edge>
    <edge id=":n3_9" function="internal">
        <lane id=":n3_9_0" index="0" speed="9.26" length="6.96" shape="1189.60,-1.60 1194.85,-0.85 1196.27,0.00"/>
    </edge>
    <edge id=":n3_10" function="internal">
        <lane id=":n3_10_0" index="0" speed="3.65" length="2.34" shape="1189.60,-1.60 1190.80,-0.80 1191.20,0.00"/>
    </edge>
    <edge id=":n3_12" function="internal">
        <lane id=":n3_12_0" index="0" speed="9.26" length="12.40" shape="1196.27,0.00 1198.60,1.40 1200.85,5.15 1201.60,10.40"/>
    </edge>
    <edge id=":n3_13" function="internal">
        <lane id=":n3_13_0" index="0" speed="3.65" length="2.34" shape="1191.20,0.00 1190.80,0.80 1189.60,1.60"/>
    </edge>
    <edge id=":n4_0" function="internal">
        <lane id=":n4_0_0" index="0" speed="6.51" length="9.03" shape="1195.20,1010.40 1194.85,1007.95 1193.80,1006.20 1192.05,1005.15 1189.60,1004.80"/>
    </edge>
    <edge id=":n4_1" function="internal">
        <lane id=":n4_1_0" index="0" speed="16.67" length="20.80" shape="1195.20,1010.40 1195.20,989.60"/>
        <lane id=":n4_1_1" index="1" speed="16.67" length="20.80" shape="1198.40,1010.40 1198.40,989.60"/>
    </edge>
    <edge id=":n4_3" function="internal">
        <lane id=":n4_3_0" index="0" speed="9.26" length="6.96" shape="1198.40,1010.40 1199.15,1005.15 1200.00,1003.73"/>
    </edge>
    <edge id=":n4_4" function="internal">
        <lane id=":n4_4_0" index="0" speed="3.65" length="2.34" shape="1198.40,1010.40 1199.20,1009.20 1200.00,1008.80"/>
    </edge>
    <edge id=":n4_20" function="internal">
        <lane id=":n4_20_0" index="0" speed="9.26" length="12.40" shape="1200.00,1003.73 1201.40,1001.40 1205.15,999.15 1210.40,998.40"/>
    </edge>
    <edge id=":n4_21" function="internal">
        <lane id=":n4_21_0" index="0" speed="3.65" length="2.34" shape="1200.00,1008.80 1200.80,1009.20 1201.60,1010.40"/>
    </edge>
    <edge id=":n4_5" function="internal">
        <lane id=":n4_5_0" index="0" speed="6.51" length="9.03" shape="1210.40,1004.80 1207.95,1005.15 1206.20,1006.20 1205.15,1007.95 1204.80,1010.40"/>
    </edge>
    <edge id=":n4_6" function="internal">
        <lane id=":n4_6_0" index="0" speed="16.67" length="20.80" shape="1210.40,1004.80 1189.60,1004.80"/>
        <lane id=":n4_6_1" index="1" speed="16.67" length="20.80" shape="1210.40,1001.60 1189.60,1001.60"/>
    </edge>
    <edge id=":n4_8" function="internal">
        <lane id=":n4_8_0" index="0" speed="9.26" length="19.35" shape="1210.40,1001.60 1205.15,1000.85 1201.40,998.60 1199.15,994.85 1198.40,989.60"/>
    </edge>
    <edge id=":n4_9" function="internal">
        <lane id=":n4_9_0" index="0" speed="3.65" length="4.67" shape="1210.40,1001.60 1209.20,1000.80 1208.80,1000.00 1209.20,999.20 1210.40,998.40"/>
    </edge>
    <edge id=":n4_10" function="internal">
        <lane id=":n4_10_0" index="0" speed="6.51" length="9.03" shape="1204.80,989.60 1205.15,992.05 1206.20,993.80 1207.95,994.85 1210.40,995.20"/>
    </edge>
    <edge id=":n4_11" function="internal">
        <lane id=":n4_11_0" index="0" speed="16.67" length="20.80" shape="1204.80,989.60 1204.80,1010.40"/>
        <lane id=":n4_11_1" index="1" speed="16.67" length="20.80" shape="1201.60,989.60 1201.60,1010.40"/>
    </edge>
    <edge id=":n4_13" function="internal">
        <lane id=":n4_13_0" index="0" speed="9.26" length="6.96" shape="1201.60,989.60 1200.85,994.85 1200.00,996.27"/>
    </edge>
    <edge id=":n4_14" function="internal">
        <lane id=":n4_14_0" index="0" speed="3.65" length="2.34" shape="1201.60,989.60 1200.80,990.80 1200.00,991.20"/>
    </edge>
    <edge id=":n4_22" function="internal">
        <lane id=":n4_22_0" index="0" speed="9.26" length="12.40" shape="1200.00,996.27 1198.60,998.60 1194.85,1000.85 1189.60,1001.60"/>
    </edge>
    <edge id=":n4_23" function="internal">
        <lane id=":n4_23_0" index="0" speed="3.65" length="2.34" shape="1200.00,991.20 1199.20,990.80 1198.40,989.60"/>
    </edge>
    <edge id=":n4_15" function="internal">
        <lane id=":n4_15_0" index="0" speed="6.51" length="9.03" shape="1189.60,995.20 1192.05,994.85 1193.80,993.80 1194.85,992.05 1195.20,989.60"/>
    </edge>
    <edge id=":n4_16" function="internal">
        <lane id=":n4_16_0" index="0" speed="16.67" length="20.80" shape="1189.60,995.20 1210.40,995.20"/>
        <lane id=":n4_16_1" index="1" speed="16.67" length="20.80" shape="1189.60,998.40 1210.40,998.40"/>
    </edge>
    <edge id=":n4_18" function="internal">
        <lane id=":n4_18_0" index="0" speed="9.26" length="19.35" shape="1189.60,998.40 1194.85,999.15 1198.60,1001.40 1200.85,1005.15 1201.60,1010.40"/>
    </edge>
    <edge id=":n4_19" function="internal">
        <lane id=":n4_19_0" index="0" speed="3.65" length="4.67" shape="1189.60,998.40 1190.80,999.20 1191.20,1000.00 1190.80,1000.80 1189.60,1001.60"/>
    </edge>
    <edge id=":n5_0" function="internal">
        <lane id=":n5_0_0" index="0" speed="16.67" length="20.80" shape="1210.40,2004.80 1189.60,2004.80"/>
        <lane id=":n5_0_1" index="1" speed="16.67" length="20.80" shape="1210.40,2001.60 1189.60,2001.60"/>
    </edge>
    <edge id=":n5_2" function="internal">
        <lane id=":n5_2_0" index="0" speed="9.26" length="6.96" shape="1210.40,2001.60 1205.15,2000.85 1203.73,2000.00"/>
    </edge>
    <edge id=":n5_3" function="internal">
        <lane id=":n5_3_0" index="0" speed="3.65" length="2.34" shape="1210.40,2001.60 1209.20,2000.80 1208.80,2000.00"/>
    </edge>
    <edge id=":n5_11" function="internal">
        <lane id=":n5_11_0" index="0" speed="9.26" length="12.40" shape="1203.73,2000.00 1201.40,1998.60 1199.15,1994.85 1198.40,1989.60"/>
    </edge>
    <edge id=":n5_12" function="internal">
        <lane id=":n5_12_0" index="0" speed="3.65" length="2.34" shape="1208.80,2000.00 1209.20,1999.20 1210.40,1998.40"/>
    </edge>
    <edge id=":n5_4" function="internal">
        <lane id=":n5_4_0" index="0" speed="6.51" length="9.03" shape="1204.80,1989.60 1205.15,1992.05 1206.20,1993.80 1207.95,1994.85 1210.40,1995.20"/>
    </edge>
    <edge id=":n5_5" function="internal">
        <lane id=":n5_5_0" index="0" speed="9.26" length="19.35" shape="1201.60,1989.60 1200.85,1994.85 1198.60,1998.60 1194.85,2000.85 1189.60,2001.60"/>
    </edge>
    <edge id=":n5_6" function="internal">
        <lane id=":n5_6_0" index="0" speed="3.65" length="4.67" shape="1201.60,1989.60 1200.80,1990.80 1200.00,1991.20 1199.20,1990.80 1198.40,1989.60"/>
    </edge>
    <edge id=":n5_7" function="internal">
        <lane id=":n5_7_0" index="0" speed="6.51" length="9.03" shape="1189.60,1995.20 1192.05,1994.85 1193.80,1993.80 1194.85,1992.05 1195.20,1989.60"/>
    </edge>
    <edge id=":n5_8" function="internal">
        <lane id=":n5_8_0" index="0" speed="16.67" length="20.80" shape="1189.60,1995.20 1210.40,1995.20"/>
        <lane id=":n5_8_1" index="1" speed="16.67" length="20.80" shape="1189.60,1998.40 1210.40,1998.40"/>
    </edge>
    <edge id=":n5_10" function="internal">
        <lane id=":n5_10_0" index="0" speed="3.65" length="2.34" shape="1189.60,1998.40 1190.80,1999.20 1191.20,2000.00"/>
    </edge>
    <edge id=":n5_13" function="internal">
        <lane id=":n5_13_0" index="0" speed="3.65" length="2.34" shape="1191.20,2000.00 1190.80,2000.80 1189.60,2001.60"/>
    </edge>
    <edge id=":n6_0" function="internal">
        <lane id=":n6_0_0" index="0" speed="3.90" length="2.58" shape="2195.20,6.40 2195.10,5.70 2194.80,5.20 2194.30,4.90 2193.60,4.80"/>
    </edge>
    <edge id=":n6_1" function="internal">
        <lane id=":n6_1_0" index="0" speed="6.08" length="7.74" shape="2198.40,6.40 2198.10,4.30 2197.20,2.80 2195.70,1.90 2193.60,1.60"/>
    </edge>
    <edge id=":n6_2" function="internal">
        <lane id=":n6_2_0" index="0" speed="8.96" length="18.06" shape="2193.60,-4.80 2198.50,-4.10 2202.00,-2.00 2204.10,1.50 2204.80,6.40"/>
    </edge>
    <edge id=":n6_3" function="internal">
        <lane id=":n6_3_0" index="0" speed="7.66" length="12.90" shape="2193.60,-1.60 2197.10,-1.10 2199.60,0.40 2201.10,2.90 2201.60,6.40"/>
    </edge>
    <edge id=":n7_0" function="internal">
        <lane id=":n7_0_0" index="0" speed="6.51" length="9.03" shape="2195.20,1010.40 2194.85,1007.95 2193.80,1006.20 2192.05,1005.15 2189.60,1004.80"/>
    </edge>
    <edge id=":n7_1" function="internal">
        <lane id=":n7_1_0" index="0" speed="16.67" length="20.80" shape="2195.20,1010.40 2195.20,989.60"/>
        <lane id=":n7_1_1" index="1" speed="16.67" length="20.80" shape="2198.40,1010.40 2198.40,989.60"/>
    </edge>
    <edge id=":n7_3" function="internal">
        <lane id=":n7_3_0" index="0" speed="3.65" length="2.34" shape="2198.40,1010.40 2199.20,1009.20 2200.00,1008.80"/>
    </edge>
    <edge id=":n7_11" function="internal">
        <lane id=":n7_11_0" index="0" speed="3.65" length="2.34" shape="2200.00,1008.80 2200.80,1009.20 2201.60,1010.40"/>
    </edge>
    <edge id=":n7_4" function="internal">
        <lane id=":n7_4_0" index="0" speed="16.67" length="20.80" shape="2204.80,989.60 2204.80,1010.40"/>
        <lane id=":n7_4_1" index="1" speed="16.67" length="20.80" shape="2201.60,989.60 2201.60,1010.40"/>
    </edge>
    <edge id=":n7_6" function="internal">
        <lane id=":n7_6_0" index="0" speed="9.26" length="6.96" shape="2201.60,989.60 2200.85,994.85 2200.00,996.27"/>
    </edge>
    <edge id=":n7_7" function="internal">
        <lane id=":n7_7_0" index="0" speed="3.65" length="2.34" shape="2201.60,989.60 2200.80,990.80 2200.00,991.20"/>
    </edge>
    <edge id=":n7_12" function="internal">
        <lane id=":n7_12_0" index="0" speed="9.26" length="12.40" shape="2200.00,996.27 2198.60,998.60 2194.85,1000.85 2189.60,1001.60"/>
    </edge>
    <edge id=":n7_13" function="internal">
        <lane id=":n7_13_0" index="0" speed="3.65" length="2.34" shape="2200.00,991.20 2199.20,990.80 2198.40,989.60"/>
    </edge>
    <edge id=":n7_8" function="internal">
        <lane id=":n7_8_0" index="0" speed="6.51" length="9.03" shape="2189.60,995.20 2192.05,994.85 2193.80,993.80 2194.85,992.05 2195.20,989.60"/>
    </edge>
    <edge id=":n7_9" function="internal">
        <lane id=":n7_9_0" index="0" speed="9.26" length="19.35" shape="2189.60,998.40 2194.85,999.15 2198.60,1001.40 2200.85,1005.15 2201.60,1010.40"/>
    </edge>
    <edge id=":n7_10" function="internal">
        <lane id=":n7_10_0" index="0" speed="3.65" length="4.67" shape="2189.60,998.40 2190.80,999.20 2191.20,1000.00 2190.80,1000.80 2189.60,1001.60"/>
    </edge>
    <edge id=":n8_0" function="internal">
        <lane id=":n8_0_0" index="0" speed="16.67" length="20.80" shape="2210.40,2004.80 2189.60,2004.80"/>
        <lane id=":n8_0_1" index="1" speed="16.67" length="20.80" shape="2210.40,2001.60 2189.60,2001.60"/>
    </edge>
    <edge id=":n8_2" function="internal">
        <lane id=":n8_2_0" index="0" speed="9.26" length="6.96" shape="2210.40,2001.60 2205.15,2000.85 2203.73,2000.00"/>
    </edge>
    <edge id=":n8_3" function="internal">
        <lane id=":n8_3_0" index="0" speed="3.65" length="2.34" shape="2210.40,2001.60 2209.20,2000.80 2208.80,2000.00"/>
    </edge>
    <edge id=":n8_11" function="internal">
        <lane id=":n8_11_0" index="0" speed="9.26" length="12.40" shape="2203.73,2000.00 2201.40,1998.60 2199.15,1994.85 2198.40,1989.60"/>
    </edge>
    <edge id=":n8_12" function="internal">
        <lane id=":n8_12_0" index="0" speed="3.65" length="2.34" shape="2208.80,2000.00 2209.20,1999.20 2210.40,1998.40"/>
    </edge>
    <edge id=":n8_4" function="internal">
        <lane id=":n8_4_0" index="0" speed="6.51" length="9.03" shape="2204.80,1989.60 2205.15,1992.05 2206.20,1993.80 2207.95,1994.85 2210.40,1995.20"/>
    </edge>
    <edge id=":n8_5" function="internal">
        <lane id=":n8_5_0" index="0" speed="9.26" length="19.35" shape="2201.60,1989.60 2200.85,1994.85 2198.60,1998.60 2194.85,2000.85 2189.60,2001.60"/>
    </edge>
    <edge id=":n8_6" function="internal">
        <lane id=":n8_6_0" index="0" speed="3.65" length="4.67" shape="2201.60,1989.60 2200.80,1990.80 2200.00,1991.20 2199.20,1990.80 2198.40,1989.60"/>
    </edge>
    <edge id=":n8_7" function="internal">
        <lane id=":n8_7_0" index="0" speed="6.51" length="9.03" shape="2189.60,1995.20 2192.05,1994.85 2193.80,1993.80 2194.85,1992.05 2195.20,1989.60"/>
    </edge>
    <edge id=":n8_8" function="internal">
        <lane id=":n8_8_0" index="0" speed="16.67" length="20.80" shape="2189.60,1995.20 2210.40,1995.20"/>
        <lane id=":n8_8_1" index="1" speed="16.67" length="20.80" shape="2189.60,1998.40 2210.40,1998.40"/>
    </edge>
    <edge id=":n8_10" function="internal">
        <lane id=":n8_10_0" index="0" speed="3.65" length="2.34" shape="2189.60,1998.40 2190.80,1999.20 2191.20,2000.00"/>
    </edge>
    <edge id=":n8_13" function="internal">
        <lane id=":n8_13_0" index="0" speed="3.65" length="2.34" shape="2191.20,2000.00 2190.80,2000.80 2189.60,2001.60"/>
    </edge>

    <edge id="e0" from="n0" to="n1" priority="1">
        <lane id="e0_0" index="0" speed="16.67" length="979.20" shape="204.80,10.40 204.80,989.60"/>
        <lane id="e0_1" index="1" speed="16.67" length="979.20" shape="201.60,10.40 201.60,989.60"/>
    </edge>
    <edge id="e0-reverse" from="n1" to="n0" priority="1">
        <lane id="e0-reverse_0" index="0" speed="16.67" length="979.20" shape="195.20,989.60 195.20,10.40"/>
        <lane id="e0-reverse_1" index="1" speed="16.67" length="979.20" shape="198.40,989.60 198.40,10.40"/>
    </edge>
    <edge id="e1" from="n1" to="n2" priority="1">
        <lane id="e1_0" index="0" speed="16.67" length="983.20" shape="204.80,1010.40 204.80,1993.60"/>
        <lane id="e1_1" index="1" speed="16.67" length="983.20" shape="201.60,1010.40 201.60,1993.60"/>
    </edge>
    <edge id="e1-reverse" from="n2" to="n1" priority="1">
        <lane id="e1-reverse_0" index="0" speed="16.67" length="983.20" shape="195.20,1993.60 195.20,1010.40"/>
        <lane id="e1-reverse_1" index="1" speed="16.67" length="983.20" shape="198.40,1993.60 198.40,1010.40"/>
    </edge>
    <edge id="e10" from="n2" to="n5" priority="1">
        <lane id="e10_0" index="0" speed="16.67" length="983.20" shape="206.40,1995.20 1189.60,1995.20"/>
        <lane id="e10_1" index="1" speed="16.67" length="983.20" shape="206.40,1998.40 1189.60,1998.40"/>
    </edge>
    <edge id="e10-reverse" from="n5" to="n2" priority="1">
        <lane id="e10-reverse_0" index="0" speed="16.67" length="983.20" shape="1189.60,2004.80 206.40,2004.80"/>
        <lane id="e10-reverse_1" index="1" speed="16.67" length="983.20" shape="1189.60,2001.60 206.40,2001.60"/>
    </edge>
    <edge id="e11" from="n5" to="n8" priority="1">
        <lane id="e11_0" index="0" speed="16.67" length="979.20" shape="1210.40,1995.20 2189.60,1995.20"/>
        <lane id="e11_1" index="1" speed="16.67" length="979.20" shape="1210.40,1998.40 2189.60,1998.40"/>
    </edge>
    <edge id="e11-reverse" from="n8" to="n5" priority="1">
        <lane id="e11-reverse_0" index="0" speed="16.67" length="979.20" shape="2189.60,2004.80 1210.40,2004.80"/>
        <lane id="e11-reverse_1" index="1" speed="16.67" length="979.20" shape="2189.60,2001.60 1210.40,2001.60"/>
    </edge>
    <edge id="e2" from="n3" to="n4" priority="1">
        <lane id="e2_0" index="0" speed="16.67" length="979.20" shape="1204.80,10.40 1204.80,989.60"/>
        <lane id="e2_1" index="1" speed="16.67" length="979.20" shape="1201.60,10.40 1201.60,989.60"/>
    </edge>
    <edge id="e2-reverse" from="n4" to="n3" priority="1">
        <lane id="e2-reverse_0" index="0" speed="16.67" length="979.20" shape="1195.20,989.60 1195.20,10.40"/>
        <lane id="e2-reverse_1" index="1" speed="16.67" length="979.20" shape="1198.40,989.60 1198.40,10.40"/>
    </edge>
    <edge id="e3" from="n4" to="n5" priority="1">
        <lane id="e3_0" index="0" speed="16.67" length="979.20" shape="1204.80,1010.40 1204.80,1989.60"/>
        <lane id="e3_1" index="1" speed="16.67" length="979.20" shape="1201.60,1010.40 1201.60,1989.60"/>
    </edge>
    <edge id="e3-reverse" from="n5" to="n4" priority="1">
        <lane id="e3-reverse_0" index="0" speed="16.67" length="979.20" shape="1195.20,1989.60 1195.20,1010.40"/>
        <lane id="e3-reverse_1" index="1" speed="16.67" length="979.20" shape="1198.40,1989.60 1198.40,1010.40"/>
    </edge>
    <edge id="e4" from="n6" to="n7" priority="1">
        <lane id="e4_0" index="0" speed="16.67" length="983.20" shape="2204.80,6.40 2204.80,989.60"/>
        <lane id="e4_1" index="1" speed="16.67" length="983.20" shape="2201.60,6.40 2201.60,989.60"/>
    </edge>
    <edge id="e4-reverse" from="n7" to="n6" priority="1">
        <lane id="e4-reverse_0" index="0" speed="16.67" length="983.20" shape="2195.20,989.60 2195.20,6.40"/>
        <lane id="e4-reverse_1" index="1" speed="16.67" length="983.20" shape="2198.40,989.60 2198.40,6.40"/>
    </edge>
    <edge id="e5" from="n7" to="n8" priority="1">
        <lane id="e5_0" index="0" speed="16.67" length="979.20" shape="2204.80,1010.40 2204.80,1989.60"/>
        <lane id="e5_1" index="1" speed="16.67" length="979.20" shape="2201.60,1010.40 2201.60,1989.60"/>
    </edge>
    <edge id="e5-reverse" from="n8" to="n7" priority="1">
        <lane id="e5-reverse_0" index="0" speed="16.67" length="979.20" shape="2195.20,1989.60 2195.20,1010.40"/>
        <lane id="e5-reverse_1" index="1" speed="16.67" length="979.20" shape="2198.40,1989.60 2198.40,1010.40"/>
    </edge>
    <edge id="e6" from="n0" to="n3" priority="1">
        <lane id="e6_0" index="0" speed="16.67" length="979.20" shape="210.40,-4.80 1189.60,-4.80"/>
        <lane id="e6_1" index="1" speed="16.67" length="979.20" shape="210.40,-1.60 1189.60,-1.60"/>
    </edge>
    <edge id="e6-reverse" from="n3" to="n0" priority="1">
        <lane id="e6-reverse_0" index="0" speed="16.67" length="979.20" shape="1189.60,4.80 210.40,4.80"/>
        <lane id="e6-reverse_1" index="1" speed="16.67" length="979.20" shape="1189.60,1.60 210.40,1.60"/>
    </edge>
    <edge id="e7" from="n3" to="n6" priority="1">
        <lane id="e7_0" index="0" speed="16.67" length="983.20" shape="1210.40,-4.80 2193.60,-4.80"/>
        <lane id="e7_1" index="1" speed="16.67" length="983.20" shape="1210.40,-1.60 2193.60,-1.60"/>
    </edge>
    <edge id="e7-reverse" from="n6" to="n3" priority="1">
        <lane id="e7-reverse_0" index="0" speed="16.67" length="983.20" shape="2193.60,4.80 1210.40,4.80"/>
        <lane id="e7-reverse_1" index="1" speed="16.67" length="983.20" shape="2193.60,1.60 1210.40,1.60"/>
    </edge>
    <edge id="e8" from="n1" to="n4" priority="1">
        <lane id="e8_0" index="0" speed="16.67" length="979.20" shape="210.40,995.20 1189.60,995.20"/>
        <lane id="e8_1" index="1" speed="16.67" length="979.20" shape="210.40,998.40 1189.60,998.40"/>
    </edge>
    <edge id="e8-reverse" from="n4" to="n1" priority="1">
        <lane id="e8-reverse_0" index="0" speed="16.67" length="979.20" shape="1189.60,1004.80 210.40,1004.80"/>
        <lane id="e8-reverse_1" index="1" speed="16.67" length="979.20" shape="1189.60,1001.60 210.40,1001.60"/>
    </edge>
    <edge id="e9" from="n4" to="n7" priority="1">
        <lane id="e9_0" index="0" speed="16.67" length="979.20" shape="1210.40,995.20 2189.60,995.20"/>
        <lane id="e9_1" index="1" speed="16.67" length="979.20" shape="1210.40,998.40 2189.60,998.40"/>
    </edge>
    <edge id="e9-reverse" from="n7" to="n4" priority="1">
        <lane id="e9-reverse_0" index="0" speed="16.67" length="979.20" shape="2189.60,1004.80 1210.40,1004.80"/>
        <lane id="e9-reverse_1" index="1" speed="16.67" length="979.20" shape="2189.60,1001.60 1210.40,1001.60"/>
    </edge>
    <edge id="entrance-edge" from="entrance" to="n0" priority="1">
        <lane id="entrance-edge_0" index="0" speed="16.67" length="189.60" shape="0.00,-4.80 189.60,-4.80"/>
        <lane id="entrance-edge_1" index="1" speed="16.67" length="189.60" shape="0.00,-1.60 189.60,-1.60"/>
    </edge>
    <edge id="entrance-edge-reverse" from="n0" to="entrance" priority="1">
        <lane id="entrance-edge-reverse_0" index="0" speed="16.67" length="189.60" shape="189.60,4.80 0.00,4.80"/>
        <lane id="entrance-edge-reverse_1" index="1" speed="16.67" length="189.60" shape="189.60,1.60 0.00,1.60"/>
    </edge>
    <edge id="exit-edge" from="n8" to="exit" priority="1">
        <lane id="exit-edge_0" index="0" speed="16.67" length="189.60" shape="2210.40,1995.20 2400.00,1995.20"/>
        <lane id="exit-edge_1" index="1" speed="16.67" length="189.60" shape="2210.40,1998.40 2400.00,1998.40"/>
    </edge>
    <edge id="exit-edge-reverse" from="exit" to="n8" priority="1">
        <lane id="exit-edge-reverse_0" index="0" speed="16.67" length="189.60" shape="2400.00,2004.80 2210.40,2004.80"/>
        <lane id="exit-edge-reverse_1" index="1" speed="16.67" length="189.60" shape="2400.00,2001.60 2210.40,2001.60"/>
    </edge>

    <junction id="entrance" type="priority" x="0.00" y="0.00" incLanes="entrance-edge-reverse_0 entrance-edge-reverse_1" intLanes=":entrance_0_0" shape="0.00,0.00 0.00,6.40 0.00,0.00">
        <request index="0" response="0" foes="0" cont="0"/>
    </junction>
    <junction id="exit" type="priority" x="2400.00" y="2000.00" incLanes="exit-edge_0 exit-edge_1" intLanes=":exit_0_0" shape="2400.00,2000.00 2400.00,1993.60 2400.00,2000.00">
        <request index="0" response="0" foes="0" cont="0"/>
    </junction>