<nodes>
    <node id='entrance' x='-200.0' y='0.0' type='priority'/>
    <node id='n0' x='0.0' y='0.0' type='priority'/>
    <node id='n1' x='0.0' y='1000.0' type='priority'/>
    <node id='n2' x='0.0' y='2000.0' type='priority'/>
    <node id='n3' x='1000.0' y='0.0' type='priority'/>
    <node id='n4' x='1000.0' y='1000.0' type='priority'/>
    <node id='n5' x='1000.0' y='2000.0' type='priority'/>
    <node id='n6' x='2000.0' y='0.0' type='priority'/>
    <node id='n7' x='2000.0' y='1000.0' type='priority'/>
    <node id='n8' x='2000.0' y='2000.0' type='priority'/>
    <node id='exit' x='2200.0' y='2000.0' type='priority'/>
</nodes>
