<?xml version="1.0" encoding="UTF-8"?>

<!-- generated on Sat Jan  9 18:42:48 2021 by Eclipse SUMO activitygen Version 1.8.0
<configuration xmlns:xsi="http://www.w3.org/2001/XMLSchema-instance" xsi:noNamespaceSchemaLocation="http://sumo.dlr.de/xsd/activitygenConfiguration.xsd">

    <input>
        <net-file value="network.net.xml"/>
        <stat-file value="activitygen.stat.xml"/>
    </input>

    <output>
        <output-file value="routes.rou.xml"/>
    </output>

    <random_number>
        <random value="true"/>
    </random_number>

</configuration>
-->

<routes xmlns:xsi="http://www.w3.org/2001/XMLSchema-instance" xsi:noNamespaceSchemaLocation="http://sumo.dlr.de/xsd/routes_file.xsd">
    <vType id="default" vClass="passenger" color="red"/>
    <vType id="random" vClass="passenger" color="blue"/>
    <vType id="bus" vClass="bus" color="green"/>

    <trip id="randUni204:1" type="random" depart="561.00" departPos="124.13" arrivalPos="626.14" arrivalSpeed="0.00" from="exit-edge" to="e1-reverse"/>
    <trip id="randUni294:1" type="random" depart="1082.00" departPos="546.42" arrivalPos="480.17" arrivalSpeed="0.00" from="e7-reverse" to="e4"/>
    <trip id="randUni347:1" type="random" depart="1186.00" departPos="876.99" arrivalPos="200.34" arrivalSpeed="0.00" from="e0-reverse" to="e8"/>
    <trip id="randUni389:1" type="random" depart="1489.00" departPos="926.04" arrivalPos="192.56" arrivalSpeed="0.00" from="e3" to="e5"/>
    <trip id="randUni418:1" type="random" depart="1664.00" departPos="126.48" arrivalPos="86.86" arrivalSpeed="0.00" from="exit-edge" to="entrance-edge-reverse"/>
    <trip id="randUni399:1" type="random" depart="2519.00" departPos="849.42" arrivalPos="325.89" arrivalSpeed="0.00" from="e2-reverse" to="e3"/>
    <trip id="randUni118:1" type="random" depart="2592.00" departPos="547.97" arrivalPos="307.71" arrivalSpeed="0.00" from="e6-reverse" to="e9"/>
    <trip id="randUni263:1" type="random" depart="3232.00" departPos="124.96" arrivalPos="421.86" arrivalSpeed="0.00" from="exit-edge-reverse" to="e4"/>
    <trip id="randUni209:1" type="random" depart="3424.00" departPos="148.66" arrivalPos="738.43" arrivalSpeed="0.00" from="e1" to="e9-reverse"/>
    <trip id="randUni308:1" type="random" depart="3543.00" departPos="301.64" arrivalPos="337.12" arrivalSpeed="0.00" from="e10" to="e3"/>
    <trip id="randUni105:1" type="random" depart="3839.00" departPos="368.06" arrivalPos="69.01" arrivalSpeed="0.00" from="e0-reverse" to="entrance-edge-reverse"/>
    <trip id="randUni39:1" type="random" depart="4055.00" departPos="56.29" arrivalPos="775.56" arrivalSpeed="0.00" from="e11" to="e3-reverse"/>
    <trip id="randUni181:1" type="random" depart="4299.00" departPos="561.04" arrivalPos="40.31" arrivalSpeed="0.00" from="e8" to="e4"/>
    <trip id="randUni126:1" type="random" depart="4514.00" departPos="344.55" arrivalPos="590.49" arrivalSpeed="0.00" from="e3" to="e3"/>
    <trip id="randUni52:1" type="random" depart="4784.00" departPos="657.34" arrivalPos="870.60" arrivalSpeed="0.00" from="e1-reverse" to="e7-reverse"/>
    <trip id="randUni22:1" type="random" depart="4909.00" departPos="90.37" arrivalPos="40.65" arrivalSpeed="0.00" from="exit-edge-reverse" to="e3-reverse"/>
    <trip id="randUni460:1" type="random" depart="5080.00" departPos="515.53" arrivalPos="40.16" arrivalSpeed="0.00" from="e6" to="exit-edge-reverse"/>
    <trip id="randUni196:1" type="random" depart="5194.00" departPos="609.70" arrivalPos="780.07" arrivalSpeed="0.00" from="e4-reverse" to="e1-reverse"/>
    <trip id="randUni75:1" type="random" depart="5663.00" departPos="526.84" arrivalPos="30.12" arrivalSpeed="0.00" from="e1-reverse" to="exit-edge-reverse"/>
    <trip id="randUni227:1" type="random" depart="5726.00" departPos="279.97" arrivalPos="495.12" arrivalSpeed="0.00" from="e3" to="e1-reverse"/>
    <trip id="randUni304:1" type="random" depart="6444.00" departPos="60.35" arrivalPos="180.77" arrivalSpeed="0.00" from="e2" to="e7-reverse"/>
    <trip id="randUni391:1" type="random" depart="6500.00" departPos="87.40" arrivalPos="111.78" arrivalSpeed="0.00" from="e11" to="e2"/>
    <trip id="randUni74:1" type="random" depart="7790.00" departPos="170.63" arrivalPos="594.49" arrivalSpeed="0.00" from="e4-reverse" to="e4-reverse"/>
    <trip id="randUni11:1" type="random" depart="7845.00" departPos="800.57" arrivalPos="477.00" arrivalSpeed="0.00" from="e1" to="e9"/>
    <trip id="randUni238:1" type="random" depart="8308.00" departPos="660.38" arrivalPos="560.15" arrivalSpeed="0.00" from="e2-reverse" to="e5"/>
    <trip id="randUni326:1" type="random" depart="8321.00" departPos="96.29" arrivalPos="449.04" arrivalSpeed="0.00" from="entrance-edge" to="e1-reverse"/>
    <trip id="randUni452:1" type="random" depart="8938.00" departPos="799.49" arrivalPos="229.85" arrivalSpeed="0.00" from="e0-reverse" to="e7"/>
    <trip id="randUni205:1" type="random" depart="9330.00" departPos="14.90" arrivalPos="97.69" arrivalSpeed="0.00" from="e10-reverse" to="exit-edge"/>
    <trip id="randUni20:1" type="random" depart="9578.00" departPos="669.20" arrivalPos="801.98" arrivalSpeed="0.00" from="e0-reverse" to="e5"/>
    <trip id="randUni438:1" type="random" depart="9606.00" departPos="571.58" arrivalPos="220.59" arrivalSpeed="0.00" from="e3-reverse" to="e4"/>
    <trip id="randUni48:1" type="random" depart="9673.00" departPos="719.03" arrivalPos="171.19" arrivalSpeed="0.00" from="e7-reverse" to="e1"/>
    <trip id="randUni225:1" type="random" depart="9782.00" departPos="128.82" arrivalPos="399.31" arrivalSpeed="0.00" from="e3" to="e8-reverse"/>
    <trip id="randUni112:1" type="random" depart="9925.00" departPos="873.15" arrivalPos="103.40" arrivalSpeed="0.00" from="e7" to="entrance-edge"/>
    <trip id="randUni260:1" type="random" depart="9950.00" departPos="136.42" arrivalPos="97.05" arrivalSpeed="0.00" from="exit-edge-reverse" to="e0-reverse"/>
    <trip id="randUni136:1" type="random" depart="10010.00" departPos="777.80" arrivalPos="507.54" arrivalSpeed="0.00" from="e9" to="e3-reverse"/>
    <trip id="randUni122:1" type="random" depart="10206.00" departPos="575.15" arrivalPos="811.08" arrivalSpeed="0.00" from="e11" to="e4-reverse"/>
    <trip id="randUni358:1" type="random" depart="10271.00" departPos="760.70" arrivalPos="134.31" arrivalSpeed="0.00" from="e4" to="e5-reverse"/>
    <trip id="randUni312:1" type="random" depart="10803.00" departPos="157.10" arrivalPos="361.97" arrivalSpeed="0.00" from="e9-reverse" to="e10-reverse"/>
    <trip id="randUni435:1" type="random" depart="11909.00" departPos="707.81" arrivalPos="607.27" arrivalSpeed="0.00" from="e8-reverse" to="e11"/>
    <trip id="randUni366:1" type="random" depart="11991.00" departPos="515.59" arrivalPos="480.93" arrivalSpeed="0.00" from="e3-reverse" to="e10-reverse"/>
    <trip id="randUni274:1" type="random" depart="12084.00" departPos="705.58" arrivalPos="841.33" arrivalSpeed="0.00" from="e4" to="e0-reverse"/>
    <trip id="randUni307:1" type="random" depart="12169.00" departPos="884.87" arrivalPos="622.67" arrivalSpeed="0.00" from="e3-reverse" to="e11-reverse"/>
    <trip id="randUni315:1" type="random" depart="12438.00" departPos="502.25" arrivalPos="268.98" arrivalSpeed="0.00" from="e1-reverse" to="e3"/>
    <trip id="randUni148:1" type="random" depart="12980.00" departPos="836.89" arrivalPos="286.16" arrivalSpeed="0.00" from="e7-reverse" to="e9-reverse"/>
    <trip id="randUni164:1" type="random" depart="14027.00" departPos="325.17" arrivalPos="947.44" arrivalSpeed="0.00" from="e7-reverse" to="e9"/>
    <trip id="randUni411:1" type="random" depart="15228.00" departPos="197.92" arrivalPos="172.90" arrivalSpeed="0.00" from="e0-reverse" to="e7"/>
    <trip id="randUni289:1" type="random" depart="15353.00" departPos="596.23" arrivalPos="531.86" arrivalSpeed="0.00" from="e4-reverse" to="e10-reverse"/>
    <trip id="randUni362:1" type="random" depart="15681.00" departPos="246.37" arrivalPos="457.56" arrivalSpeed="0.00" from="e0-reverse" to="e3"/>
    <trip id="randUni275:1" type="random" depart="15810.00" departPos="88.62" arrivalPos="54.90" arrivalSpeed="0.00" from="e1-reverse" to="e2-reverse"/>
    <trip id="randUni189:1" type="random" depart="16164.00" departPos="94.69" arrivalPos="745.43" arrivalSpeed="0.00" from="exit-edge-reverse" to="e0"/>
    <trip id="randUni459:1" type="random" depart="16378.00" departPos="40.60" arrivalPos="381.18" arrivalSpeed="0.00" from="e8-reverse" to="e9-reverse"/>
    <trip id="randUni323:1" type="random" depart="16537.00" departPos="58.12" arrivalPos="19.25" arrivalSpeed="0.00" from="e10-reverse" to="e9-reverse"/>
    <trip id="randUni330:1" type="random" depart="16797.00" departPos="832.92" arrivalPos="78.70" arrivalSpeed="0.00" from="e5" to="e10-reverse"/>
    <trip id="randUni298:1" type="random" depart="16801.00" departPos="287.43" arrivalPos="800.03" arrivalSpeed="0.00" from="e0" to="e4-reverse"/>
    <trip id="randUni295:1" type="random" depart="17837.00" departPos="124.98" arrivalPos="652.62" arrivalSpeed="0.00" from="exit-edge" to="e8"/>
    <trip id="randUni94:1" type="random" depart="17911.00" departPos="140.66" arrivalPos="121.23" arrivalSpeed="0.00" from="e2-reverse" to="entrance-edge"/>
    <trip id="randUni367:1" type="random" depart="17953.00" departPos="390.59" arrivalPos="120.51" arrivalSpeed="0.00" from="e2-reverse" to="e6"/>
    <trip id="randUni313:1" type="random" depart="18030.00" departPos="653.08" arrivalPos="344.68" arrivalSpeed="0.00" from="e8-reverse" to="e1-reverse"/>
    <trip id="randUni432:1" type="random" depart="18387.00" departPos="172.87" arrivalPos="901.21" arrivalSpeed="0.00" from="exit-edge" to="e8-reverse"/>
    <trip id="randUni414:1" type="random" depart="18535.00" departPos="45.87" arrivalPos="876.27" arrivalSpeed="0.00" from="e0-reverse" to="e10-reverse"/>
    <trip id="randUni161:1" type="random" depart="19877.00" departPos="863.51" arrivalPos="346.85" arrivalSpeed="0.00" from="e6-reverse" to="e0"/>
    <trip id="randUni146:1" type="random" depart="20421.00" departPos="331.48" arrivalPos="953.79" arrivalSpeed="0.00" from="e7" to="e0-reverse"/>
    <trip id="randUni1:1" type="random" depart="21024.00" departPos="599.61" arrivalPos="512.09" arrivalSpeed="0.00" from="e1" to="e2"/>
    <trip id="randUni198:1" type="random" depart="21193.00" departPos="356.55" arrivalPos="402.70" arrivalSpeed="0.00" from="e9" to="e11"/>
    <trip id="randUni374:1" type="random" depart="21260.00" departPos="306.50" arrivalPos="120.99" arrivalSpeed="0.00" from="e7" to="e4-reverse"/>
    <trip id="randUni345:1" type="random" depart="21729.00" departPos="29.68" arrivalPos="44.38" arrivalSpeed="0.00" from="exit-edge-reverse" to="e1"/>
    <trip id="randUni410:1" type="random" depart="21912.00" departPos="597.58" arrivalPos="670.24" arrivalSpeed="0.00" from="e0" to="e1"/>
    <trip id="randUni409:1" type="random" depart="21972.00" departPos="3.90" arrivalPos="142.78" arrivalSpeed="0.00" from="exit-edge-reverse" to="e6"/>
    <trip id="randUni360:1" type="random" depart="22059.00" departPos="261.86" arrivalPos="939.91" arrivalSpeed="0.00" from="e6-reverse" to="e7"/>
    <trip id="randUni218:1" type="random" depart="22189.00" departPos="866.76" arrivalPos="22.15" arrivalSpeed="0.00" from="e8-reverse" to="e8-reverse"/>
    <trip id="randUni398:1" type="random" depart="22325.00" departPos="190.97" arrivalPos="52.50" arrivalSpeed="0.00" from="e3" to="e2-reverse"/>
    <trip id="randUni440:1" type="random" depart="23342.00" departPos="50.26" arrivalPos="977.59" arrivalSpeed="0.00" from="exit-edge" to="e7"/>
    <trip id="randUni219:1" type="random" depart="23636.00" departPos="83.43" arrivalPos="649.05" arrivalSpeed="0.00" from="e6-reverse" to="e7"/>
    <trip id="randUni87:1" type="random" depart="24730.00" departPos="125.82" arrivalPos="43.86" arrivalSpeed="0.00" from="exit-edge-reverse" to="exit-edge-reverse"/>
    <trip id="randUni54:1" type="random" depart="25769.00" departPos="869.59" arrivalPos="386.21" arrivalSpeed="0.00" from="e4" to="e8-reverse"/>
    <trip id="randUni250:1" type="random" depart="26367.00" departPos="7.61" arrivalPos="640.48" arrivalSpeed="0.00" from="e6-reverse" to="e11"/>
    <trip id="randUni145:1" type="random" depart="26432.00" departPos="914.58" arrivalPos="530.06" arrivalSpeed="0.00" from="e2" to="e6-reverse"/>
    <trip id="randUni336:1" type="random" depart="26598.00" departPos="968.04" arrivalPos="117.62" arrivalSpeed="0.00" from="e11" to="e10"/>
    <trip id="randUni396:1" type="random" depart="27149.00" departPos="785.05" arrivalPos="908.73" arrivalSpeed="0.00" from="e5" to="e2-reverse"/>
    <trip id="randUni291:1" type="random" depart="27240.00" departPos="975.94" arrivalPos="430.16" arrivalSpeed="0.00" from="e8" to="e8-reverse"/>
    <trip id="randUni395:1" type="random" depart="27713.00" departPos="693.31" arrivalPos="53.14" arrivalSpeed="0.00" from="e9-reverse" to="e1-reverse"/>
    <trip id="randUni276:1" type="random" depart="27890.00" departPos="129.73" arrivalPos="537.29" arrivalSpeed="0.00" from="exit-edge-reverse" to="e5"/>
    <trip id="randUni183:1" type="random" depart="28121.00" departPos="667.45" arrivalPos="112.76" arrivalSpeed="0.00" from="e10" to="e9-reverse"/>
    <trip id="randUni168:1" type="random" depart="28146.00" departPos="528.15" arrivalPos="932.90" arrivalSpeed="0.00" from="e4" to="e8-reverse"/>
    <trip id="randUni152:1" type="random" depart="28369.00" departPos="930.38" arrivalPos="39.13" arrivalSpeed="0.00" from="e4-reverse" to="e10"/>
    <trip id="randUni393:1" type="random" depart="28507.00" departPos="210.00" arrivalPos="51.18" arrivalSpeed="0.00" from="e8" to="e5"/>
    <trip id="randUni387:1" type="random" depart="28906.00" departPos="149.79" arrivalPos="401.69" arrivalSpeed="0.00" from="exit-edge" to="e8-reverse"/>
    <trip id="carIn74:1" type="default" depart="30000.00" departPos="0.00" arrivalPos="971.32" arrivalSpeed="0.00" from="e0" to="e0"/>
    <trip id="carIn37:1" type="default" depart="30002.00" departPos="0.00" arrivalPos="760.28" arrivalSpeed="0.00" from="e0" to="e0"/>
    <trip id="carIn109:1" type="default" depart="30036.00" departPos="0.00" arrivalPos="971.71" arrivalSpeed="0.00" from="e0" to="e0"/>
    <trip id="h249c1:1" type="default" depart="30055.00" departPos="16.94" arrivalPos="844.75" arrivalSpeed="0.00" from="e0" to="e0"/>
    <trip id="h167c1:1" type="default" depart="30064.00" departPos="208.65" arrivalPos="888.96" arrivalSpeed="0.00" from="e0" to="e0"/>
    <trip id="h188c1:1" type="default" depart="30065.00" departPos="933.85" arrivalPos="222.13" arrivalSpeed="0.00" from="e0" to="e0"/>
    <trip id="carIn152:1" type="default" depart="30066.00" departPos="0.00" arrivalPos="898.79" arrivalSpeed="0.00" from="e0" to="e0"/>
    <trip id="h334c1:1" type="default" depart="30068.00" departPos="853.22" arrivalPos="11.02" arrivalSpeed="0.00" from="e0" to="e0"/>
    <trip id="h42c1:1" type="default" depart="30083.00" departPos="176.05" arrivalPos="786.98" arrivalSpeed="0.00" from="e0" to="e0"/>
    <trip id="h371c1:1" type="default" depart="30086.00" departPos="779.90" arrivalPos="0.00" arrivalSpeed="0.00" from="e0" to="e0"/>
    <trip id="h395c1:1" type="default" depart="30098.00" departPos="946.23" arrivalPos="161.97" arrivalSpeed="0.00" from="e0" to="e0"/>
    <trip id="carIn128:1" type="default" depart="30099.00" departPos="0.00" arrivalPos="669.75" arrivalSpeed="0.00" from="e0" to="e0"/>
    <trip id="carIn134:1" type="default" depart="30106.00" departPos="0.00" arrivalPos="573.83" arrivalSpeed="0.00" from="e0" to="e0"/>
    <trip id="h8c1:1" type="default" depart="30109.00" departPos="166.44" arrivalPos="952.39" arrivalSpeed="0.00" from="e0" to="e0"/>
    <trip id="h228c1:1" type="default" depart="30122.00" departPos="88.99" arrivalPos="732.02" arrivalSpeed="0.00" from="e0" to="e0"/>
    <trip id="h234c1:1" type="default" depart="30136.00" departPos="905.89" arrivalPos="0.00" arrivalSpeed="0.00" from="e0" to="e0"/>
    <trip id="h222c1:1" type="default" depart="30138.00" departPos="834.93" arrivalPos="135.98" arrivalSpeed="0.00" from="e0" to="e0"/>
    <trip id="h89c1:1" type="default" depart="30145.00" departPos="124.99" arrivalPos="632.10" arrivalSpeed="0.00" from="e0" to="e0"/>
    <trip id="h339c1:1" type="default" depart="30145.00" departPos="200.82" arrivalPos="926.27" arrivalSpeed="0.00" from="e0" to="e0"/>
    <trip id="carIn5:1" type="default" depart="30151.00" departPos="0.00" arrivalPos="789.56" arrivalSpeed="0.00" from="e0" to="e0"/>
    <trip id="h67c1:1" type="default" depart="30152.00" departPos="480.04" arrivalPos="4.83" arrivalSpeed="0.00" from="e0" to="e0"/>
    <trip id="carIn27:1" type="default" depart="30160.00" departPos="0.00" arrivalPos="959.01" arrivalSpeed="0.00" from="e0" to="e0"/>
    <trip id="h185c1:1" type="default" depart="30172.00" departPos="25.06" arrivalPos="972.55" arrivalSpeed="0.00" from="e0" to="e0"/>
    <trip id="h308c1:1" type="default" depart="30173.00" departPos="862.00" arrivalPos="160.72" arrivalSpeed="0.00" from="e0" to="e0"/>
    <trip id="carIn84:1" type="default" depart="30175.00" departPos="0.00" arrivalPos="977.26" arrivalSpeed="0.00" from="e0" to="e0"/>
    <trip id="carIn129:1" type="default" depart="30175.00" departPos="0.00" arrivalPos="866.17" arrivalSpeed="0.00" from="e0" to="e0"/>
    <trip id="carIn92:1" type="default" depart="30176.00" departPos="0.00" arrivalPos="822.00" arrivalSpeed="0.00" from="e0" to="e0"/>
    <trip id="h127c1:1" type="default" depart="30182.00" departPos="3.34" arrivalPos="917.52" arrivalSpeed="0.00" from="e0" to="e0"/>
    <trip id="h276c1:1" type="default" depart="30183.00" departPos="178.96" arrivalPos="809.34" arrivalSpeed="0.00" from="e0" to="e0"/>
    <trip id="h21c1:1" type="default" depart="30185.00" departPos="163.89" arrivalPos="969.20" arrivalSpeed="0.00" from="e0" to="e0"/>
    <trip id="h299c1:1" type="default" depart="30185.00" departPos="930.26" arrivalPos="0.00" arrivalSpeed="0.00" from="e0" to="e0"/>
    <trip id="h27c1:1" type="default" depart="30187.00" departPos="114.00" arrivalPos="661.59" arrivalSpeed="0.00" from="e0" to="e0"/>
    <trip id="carIn126:1" type="default" depart="30190.00" departPos="0.00" arrivalPos="880.61" arrivalSpeed="0.00" from="e0" to="e0"/>
    <trip id="h30c1:1" type="default" depart="30192.00" departPos="93.56" arrivalPos="895.52" arrivalSpeed="0.00" from="e0" to="e0"/>
    <trip id="carIn191:1" type="default" depart="30196.00" departPos="0.00" arrivalPos="763.98" arrivalSpeed="0.00" from="e0" to="e0"/>
    <trip id="h259c1:1" type="default" depart="30197.00" departPos="974.55" arrivalPos="239.28" arrivalSpeed="0.00" from="e0" to="e0"/>
    <trip id="carIn184:1" type="default" depart="30201.00" departPos="0.00" arrivalPos="448.07" arrivalSpeed="0.00" from="e0" to="e0"/>
    <trip id="h216c1:1" type="default" depart="30202.00" departPos="618.00" arrivalPos="51.43" arrivalSpeed="0.00" from="e0" to="e0"/>
    <trip id="h367c1:1" type="default" depart="30204.00" departPos="127.33" arrivalPos="921.34" arrivalSpeed="0.00" from="e0" to="e0"/>
    <trip id="carIn157:1" type="default" depart="30205.00" departPos="0.00" arrivalPos="900.89" arrivalSpeed="0.00" from="e0" to="e0"/>
    <trip id="h221c1:1" type="default" depart="30206.00" departPos="263.95" arrivalPos="874.81" arrivalSpeed="0.00" from="e0" to="e0"/>
    <trip id="h336c1:1" type="default" depart="30207.00" departPos="514.94" arrivalPos="12.58" arrivalSpeed="0.00" from="e0" to="e0"/>
    <trip id="h424c1:1" type="default" depart="30209.00" departPos="681.41" arrivalPos="0.00" arrivalSpeed="0.00" from="e0" to="e0"/>
    <trip id="h421c1:1" type="default" depart="30211.00" departPos="193.66" arrivalPos="904.79" arrivalSpeed="0.00" from="e0" to="e0"/>
    <trip id="carIn192:1" type="default" depart="30212.00" departPos="0.00" arrivalPos="739.79" arrivalSpeed="0.00" from="e0" to="e0"/>
    <trip id="carIn104:1" type="default" depart="30215.00" departPos="0.00" arrivalPos="457.26" arrivalSpeed="0.00" from="e0" to="e0"/>
    <trip id="h20c1:1" type="default" depart="30218.00" departPos="810.28" arrivalPos="0.00" arrivalSpeed="0.00" from="e0" to="e0"/>
    <trip id="carIn24:1" type="default" depart="30222.00" departPos="0.00" arrivalPos="909.93" arrivalSpeed="0.00" from="e0" to="e0"/>
    <trip id="h307c1:1" type="default" depart="30226.00" departPos="964.16" arrivalPos="0.00" arrivalSpeed="0.00" from="e0" to="e0"/>
    <trip id="h383c1:1" type="default" depart="30227.00" departPos="839.09" arrivalPos="0.00" arrivalSpeed="0.00" from="e0" to="e0"/>
    <trip id="h68c1:1" type="default" depart="30228.00" departPos="956.36" arrivalPos="134.11" arrivalSpeed="0.00" from="e0" to="e0"/>
    <trip id="h29c1:1" type="default" depart="30231.00" departPos="93.32" arrivalPos="807.59" arrivalSpeed="0.00" from="e0" to="e0"/>
    <trip id="h149c1:1" type="default" depart="30231.00" departPos="122.34" arrivalPos="964.21" arrivalSpeed="0.00" from="e0" to="e0"/>
    <trip id="carIn53:1" type="default" depart="30231.00" departPos="0.00" arrivalPos="977.76" arrivalSpeed="0.00" from="e0" to="e0"/>
    <trip id="h323c1:1" type="default" depart="30237.00" departPos="57.74" arrivalPos="552.41" arrivalSpeed="0.00" from="e0" to="e0"/>
    <trip id="carIn50:1" type="default" depart="30241.00" departPos="0.00" arrivalPos="766.48" arrivalSpeed="0.00" from="e0" to="e0"/>
    <trip id="h210c1:1" type="default" depart="30242.00" departPos="2.12" arrivalPos="604.99" arrivalSpeed="0.00" from="e0" to="e0"/>
    <trip id="h138c1:1" type="default" depart="30243.00" departPos="21.68" arrivalPos="798.87" arrivalSpeed="0.00" from="e0" to="e0"/>
    <trip id="h292c1:1" type="default" depart="30243.00" departPos="137.92" arrivalPos="975.94" arrivalSpeed="0.00" from="e0" to="e0"/>
    <trip id="carIn4:1" type="default" depart="30244.00" departPos="0.00" arrivalPos="943.00" arrivalSpeed="0.00" from="e0" to="e0"/>
    <trip id="h245c1:1" type="default" depart="30245.00" departPos="716.70" arrivalPos="0.00" arrivalSpeed="0.00" from="e0" to="e0"/>
    <trip id="carIn156:1" type="default" depart="30247.00" departPos="0.00" arrivalPos="796.35" arrivalSpeed="0.00" from="e0" to="e0"/>
    <trip id="h52c1:1" type="default" depart="30248.00" departPos="888.58" arrivalPos="197.67" arrivalSpeed="0.00" from="e0" to="e0"/>
    <trip id="carIn67:1" type="default" depart="30248.00" departPos="0.00" arrivalPos="845.56" arrivalSpeed="0.00" from="e0" to="e0"/>
    <trip id="randUni41:1" type="random" depart="30248.00" departPos="731.75" arrivalPos="180.84" arrivalSpeed="0.00" from="e6" to="e10-reverse"/>
    <trip id="carIn33:1" type="default" depart="30253.00" departPos="0.00" arrivalPos="486.46" arrivalSpeed="0.00" from="e0" to="e0"/>
    <trip id="h253c1:1" type="default" depart="30255.00" departPos="1.69" arrivalPos="885.67" arrivalSpeed="0.00" from="e0" to="e0"/>
    <trip id="carIn30:1" type="default" depart="30255.00" departPos="0.00" arrivalPos="300.40" arrivalSpeed="0.00" from="e0" to="e0"/>
    <trip id="h97c1:1" type="default" depart="30256.00" departPos="303.08" arrivalPos="967.56" arrivalSpeed="0.00" from="e0" to="e0"/>
    <trip id="h379c1:1" type="default" depart="30257.00" departPos="355.25" arrivalPos="781.51" arrivalSpeed="0.00" from="e0" to="e0"/>
    <trip id="carIn125:1" type="default" depart="30258.00" departPos="0.00" arrivalPos="846.45" arrivalSpeed="0.00" from="e0" to="e0"/>
    <trip id="h270c1:1" type="default" depart="30263.00" departPos="411.98" arrivalPos="790.04" arrivalSpeed="0.00" from="e0" to="e0"/>
    <trip id="h104c1:1" type="default" depart="30264.00" departPos="684.42" arrivalPos="72.68" arrivalSpeed="0.00" from="e0" to="e0"/>
    <trip id="carIn6:1" type="default" depart="30264.00" departPos="0.00" arrivalPos="432.38" arrivalSpeed="0.00" from="e0" to="e0"/>
    <trip id="h191c1:1" type="default" depart="30267.00" departPos="355.62" arrivalPos="973.62" arrivalSpeed="0.00" from="e0" to="e0"/>
    <trip id="carIn154:1" type="default" depart="30272.00" departPos="0.00" arrivalPos="503.96" arrivalSpeed="0.00" from="e0" to="e0"/>
    <trip id="h161c1:1" type="default" depart="30273.00" departPos="271.68" arrivalPos="809.56" arrivalSpeed="0.00" from="e0" to="e0"/>
    <trip id="h332c1:1" type="default" depart="30274.00" departPos="670.94" arrivalPos="130.49" arrivalSpeed="0.00" from="e0" to="e0"/>
    <trip id="carIn178:1" type="default" depart="30274.00" departPos="0.00" arrivalPos="834.84" arrivalSpeed="0.00" from="e0" to="e0"/>
    <trip id="h45c1:1" type="default" depart="30277.00" departPos="89.99" arrivalPos="476.87" arrivalSpeed="0.00" from="e0" to="e0"/>
    <trip id="h267c1:1" type="default" depart="30277.00" departPos="568.32" arrivalPos="28.58" arrivalSpeed="0.00" from="e0" to="e0"/>
    <trip id="carIn12:1" type="default" depart="30278.00" departPos="0.00" arrivalPos="923.79" arrivalSpeed="0.00" from="e0" to="e0"/>
    <trip id="h394c1:1" type="default" depart="30282.00" departPos="230.02" arrivalPos="933.65" arrivalSpeed="0.00" from="e0" to="e0"/>
    <trip id="h378c1:1" type="default" depart="30283.00" departPos="540.84" arrivalPos="0.00" arrivalSpeed="0.00" from="e0" to="e0"/>
    <trip id="h118c1:1" type="default" depart="30288.00" departPos="729.48" arrivalPos="229.80" arrivalSpeed="0.00" from="e0" to="e0"/>
    <trip id="carIn93:1" type="default" depart="30288.00" departPos="0.00" arrivalPos="563.77" arrivalSpeed="0.00" from="e0" to="e0"/>
    <trip id="h134c1:1" type="default" depart="30290.00" departPos="975.91" arrivalPos="366.10" arrivalSpeed="0.00" from="e0" to="e0"/>
    <trip id="h281c1:1" type="default" depart="30291.00" departPos="552.03" arrivalPos="43.05" arrivalSpeed="0.00" from="e0" to="e0"/>
    <trip id="carIn19:1" type="default" depart="30291.00" departPos="0.00" arrivalPos="927.48" arrivalSpeed="0.00" from="e0" to="e0"/>
    <trip id="h348c1:1" type="default" depart="30293.00" departPos="41.37" arrivalPos="737.57" arrivalSpeed="0.00" from="e0" to="e0"/>
    <trip id="h32c1:1" type="default" depart="30295.00" departPos="26.18" arrivalPos="660.61" arrivalSpeed="0.00" from="e0" to="e0"/>
    <trip id="carIn65:1" type="default" depart="30295.00" departPos="0.00" arrivalPos="660.88" arrivalSpeed="0.00" from="e0" to="e0"/>
    <trip id="h392c1:1" type="default" depart="30296.00" departPos="426.05" arrivalPos="875.31" arrivalSpeed="0.00" from="e0" to="e0"/>
    <trip id="carIn99:1" type="default" depart="30300.00" departPos="0.00" arrivalPos="723.47" arrivalSpeed="0.00" from="e0" to="e0"/>
    <trip id="carIn48:1" type="default" depart="30301.00" departPos="0.00" arrivalPos="195.39" arrivalSpeed="0.00" from="e0" to="e0"/>
    <trip id="h19c1:1" type="default" depart="30302.00" departPos="177.18" arrivalPos="689.69" arrivalSpeed="0.00" from="e0" to="e0"/>
    <trip id="h85c1:1" type="default" depart="30302.00" departPos="847.15" arrivalPos="341.39" arrivalSpeed="0.00" from="e0" to="e0"/>
    <trip id="carIn200:1" type="default" depart="30303.00" departPos="0.00" arrivalPos="552.31" arrivalSpeed="0.00" from="e0" to="e0"/>
    <trip id="h376c1:1" type="default" depart="30306.00" departPos="809.16" arrivalPos="0.00" arrivalSpeed="0.00" from="e0" to="e0"/>
    <trip id="carIn116:1" type="default" depart="30306.00" departPos="0.00" arrivalPos="805.90" arrivalSpeed="0.00" from="e0" to="e0"/>
    <trip id="carIn96:1" type="default" depart="30307.00" departPos="0.00" arrivalPos="879.06" arrivalSpeed="0.00" from="e0" to="e0"/>
    <trip id="carIn25:1" type="default" depart="30308.00" departPos="0.00" arrivalPos="562.92" arrivalSpeed="0.00" from="e0" to="e0"/>
    <trip id="h79c1:1" type="default" depart="30310.00" departPos="825.92" arrivalPos="0.00" arrivalSpeed="0.00" from="e0" to="e0"/>
    <trip id="carIn40:1" type="default" depart="30311.00" departPos="0.00" arrivalPos="587.53" arrivalSpeed="0.00" from="e0" to="e0"/>
    <trip id="carIn43:1" type="default" depart="30314.00" departPos="0.00" arrivalPos="691.04" arrivalSpeed="0.00" from="e0" to="e0"/>
    <trip id="carIn136:1" type="default" depart="30317.00" departPos="0.00" arrivalPos="852.13" arrivalSpeed="0.00" from="e0" to="e0"/>
    <trip id="carIn75:1" type="default" depart="30321.00" departPos="0.00" arrivalPos="871.90" arrivalSpeed="0.00" from="e0" to="e0"/>
    <trip id="carIn82:1" type="default" depart="30322.00" departPos="0.00" arrivalPos="784.73" arrivalSpeed="0.00" from="e0" to="e0"/>
    <trip id="h182c1:1" type="default" depart="30323.00" departPos="707.86" arrivalPos="55.96" arrivalSpeed="0.00" from="e0" to="e0"/>
    <trip id="h405c1:1" type="default" depart="30326.00" departPos="972.99" arrivalPos="148.96" arrivalSpeed="0.00" from="e0" to="e0"/>
    <trip id="h65c1:1" type="default" depart="30327.00" departPos="931.42" arrivalPos="247.99" arrivalSpeed="0.00" from="e0" to="e0"/>
    <trip id="h226c1:1" type="default" depart="30327.00" departPos="106.53" arrivalPos="623.14" arrivalSpeed="0.00" from="e0" to="e0"/>
    <trip id="h177c1:1" type="default" depart="30329.00" departPos="756.52" arrivalPos="166.71" arrivalSpeed="0.00" from="e0" to="e0"/>
    <trip id="h83c1:1" type="default" depart="30330.00" departPos="727.78" arrivalPos="43.12" arrivalSpeed="0.00" from="e0" to="e0"/>
    <trip id="h25c1:1" type="default" depart="30331.00" departPos="943.87" arrivalPos="20.32" arrivalSpeed="0.00" from="e0" to="e0"/>
    <trip id="h364c1:1" type="default" depart="30331.00" departPos="232.30" arrivalPos="868.13" arrivalSpeed="0.00" from="e0" to="e0"/>
    <trip id="h399c1:1" type="default" depart="30332.00" departPos="977.52" arrivalPos="286.05" arrivalSpeed="0.00" from="e0" to="e0"/>
    <trip id="carIn101:1" type="default" depart="30333.00" departPos="0.00" arrivalPos="678.74" arrivalSpeed="0.00" from="e0" to="e0"/>
    <trip id="carIn187:1" type="default" depart="30334.00" departPos="0.00" arrivalPos="0.00" arrivalSpeed="0.00" from="e0" to="e0"/>