<?xml version='1.0' encoding='utf-8'?>

<configuration xmlns:xsi='http://www.w3.org/2001/XMLSchema-instance' xsi:noNamespaceSchemaLocation='http://sumo.dlr.de/xsd/sumoConfiguration.xsd'>

    <input>
        <net-file value='network.net.xml'/>
        <additional-files value='routes.rou.xml,vehicles.xml,validation.xml'/>
    </input>

</configuration>
